# File generated by Flopy version 3.8.0 on 01/30/2025 at 14:22:46.
BEGIN options
  BUDGET  FILEOUT  fp_mf6_model.cbc
  HEAD  FILEOUT  fp_mf6_model.hds
END options

BEGIN period  1
  SAVE  HEAD  ALL
  SAVE  BUDGET  ALL
END period  1

