# File generated by Flopy version 3.8.0 on 01/30/2025 at 14:22:46.
BEGIN options
  LENGTH_UNITS  meters
  XORIGIN       0.00000000
  YORIGIN       0.00000000
END options

BEGIN dimensions
  NLAY  1
  NROW  400
  NCOL  200
END dimensions

BEGIN griddata
  delr
    OPEN/CLOSE  'fp_mf6_model.dis_delr.txt'  FACTOR  1.0
  delc
    OPEN/CLOSE  'fp_mf6_model.dis_delc.txt'  FACTOR  1.0
  top
    OPEN/CLOSE  'fp_mf6_model.dis_top.txt'  FACTOR  1.0
  botm
    OPEN/CLOSE  'fp_mf6_model.dis_botm.txt'  FACTOR  1.0
  idomain
    OPEN/CLOSE  'fp_mf6_model.dis_idomain.txt'  FACTOR  1
END griddata

