# File generated by Flopy version 3.8.0 on 01/30/2025 at 14:22:46.
BEGIN options
END options

BEGIN griddata
  strt
    INTERNAL  FACTOR  1.0
       200.00000000     200.00000000     200.00000000     200.00000000     200.00000000     200.00000000     200.00000000     200.00000000     200.00000000     200.00000000     200.00000000     200.00000000     200.00000000     200.00000000     200.00000000     200.00000000     200.00000000     200.00000000     200.00000000     200.00000000     200.00000000     200.00000000     200.00000000     200.00000000     200.00000000     200.00000000     200.00000000     200.00000000     200.00000000     200.00000000     200.00000000     200.00000000     200.00000000     200.00000000     200.00000000     200.00000000     200.00000000     200.00000000     200.00000000     200.00000000     200.00000000     200.00000000     200.00000000     200.00000000     200.00000000     200.00000000     200.00000000     200.00000000     200.00000000     200.00000000     200.00000000     200.00000000     200.00000000     200.00000000     200.00000000     200.00000000     200.00000000     200.00000000     200.00000000     200.00000000     200.00000000     200.00000000     200.00000000     200.00000000     200.00000000     200.00000000     200.00000000     200.00000000     200.00000000     200.00000000     200.00000000     200.00000000     200.00000000     200.00000000     200.00000000     200.00000000     200.00000000     200.00000000     200.00000000     200.00000000     200.00000000     200.00000000     200.00000000     200.00000000     200.00000000     200.00000000     200.00000000     200.00000000     200.00000000     200.00000000     200.00000000     200.00000000     200.00000000     200.00000000     200.00000000     200.00000000     200.00000000     200.00000000     200.00000000     200.00000000     200.00000000     200.00000000     200.00000000     200.00000000     200.00000000     200.00000000     200.00000000     200.00000000     200.00000000     200.00000000     200.00000000     200.00000000     200.00000000     200.00000000     200.00000000     200.00000000     200.00000000     200.00000000     200.00000000     200.00000000     200.00000000     200.00000000     200.00000000     200.00000000     200.00000000     200.00000000     200.00000000     200.00000000     200.00000000     200.00000000     200.00000000     200.00000000     200.00000000     200.00000000     200.00000000     200.00000000     200.00000000     200.00000000     200.00000000     200.00000000     200.00000000     200.00000000     200.00000000     200.00000000     200.00000000     200.00000000     200.00000000     200.00000000     200.00000000     200.00000000     200.00000000     200.00000000     200.00000000     200.00000000     200.00000000     200.00000000     200.00000000     200.00000000     200.00000000     200.00000000     200.00000000     200.00000000     200.00000000     200.00000000     200.00000000     200.00000000     200.00000000     200.00000000     200.00000000     200.00000000     200.00000000     200.00000000     200.00000000     200.00000000     200.00000000     200.00000000     200.00000000     200.00000000     200.00000000     200.00000000     200.00000000     200.00000000     200.00000000     200.00000000     200.00000000     200.00000000     200.00000000     200.00000000     200.00000000     200.00000000     200.00000000     200.00000000     200.00000000     200.00000000     200.00000000     200.00000000     200.00000000     200.00000000     200.00000000     200.00000000
       200.00000000     200.00000000     200.00000000     200.00000000     200.00000000     200.00000000     200.00000000     200.00000000     200.00000000     200.00000000     200.00000000     200.00000000     200.00000000     200.00000000     200.00000000     200.00000000     200.00000000     200.00000000     200.00000000     200.00000000     200.00000000     200.00000000     200.00000000     200.00000000     200.00000000     200.00000000     200.00000000     200.00000000     200.00000000     200.00000000     200.00000000     200.00000000     200.00000000     200.00000000     200.00000000     200.00000000     200.00000000     200.00000000     200.00000000     200.00000000     200.00000000     200.00000000     200.00000000     200.00000000     200.00000000     200.00000000     200.00000000     200.00000000     200.00000000     200.00000000     200.00000000     200.00000000     200.00000000     200.00000000     200.00000000     200.00000000     200.00000000     200.00000000     200.00000000     200.00000000     200.00000000     200.00000000     200.00000000     200.00000000     200.00000000     200.00000000     200.00000000     200.00000000     200.00000000     200.00000000     200.00000000     200.00000000     200.00000000     200.00000000     200.00000000     200.00000000     200.00000000     200.00000000     200.00000000     200.00000000     200.00000000     200.00000000     200.00000000     200.00000000     200.00000000     200.00000000     200.00000000     200.00000000     200.00000000     200.00000000     200.00000000     200.00000000     200.00000000     200.00000000     200.00000000     200.00000000     200.00000000     200.00000000     200.00000000     200.00000000     200.00000000     200.00000000     200.00000000     200.00000000     200.00000000     200.00000000     200.00000000     200.00000000     200.00000000     200.00000000     200.00000000     200.00000000     200.00000000     200.00000000     200.00000000     200.00000000     200.00000000     200.00000000     200.00000000     200.00000000     200.00000000     200.00000000     200.00000000     200.00000000     200.00000000     200.00000000     200.00000000     200.00000000     200.00000000     200.00000000     200.00000000     200.00000000     200.00000000     200.00000000     200.00000000     200.00000000     200.00000000     200.00000000     200.00000000     200.00000000     200.00000000     200.00000000     200.00000000     200.00000000     200.00000000     200.00000000     200.00000000     200.00000000     200.00000000     200.00000000     200.00000000     200.00000000     200.00000000     200.00000000     200.00000000     200.00000000     200.00000000     200.00000000     200.00000000     200.00000000     200.00000000     200.00000000     200.00000000     200.00000000     200.00000000     200.00000000     200.00000000     200.00000000     200.00000000     200.00000000     200.00000000     200.00000000     200.00000000     200.00000000     200.00000000     200.00000000     200.00000000     200.00000000     200.00000000     200.00000000     200.00000000     200.00000000     200.00000000     200.00000000     200.00000000     200.00000000     200.00000000     200.00000000     200.00000000     200.00000000     200.00000000     200.00000000     200.00000000     200.00000000     200.00000000     200.00000000     200.00000000     200.00000000     200.00000000     200.00000000
       200.00000000     200.00000000     200.00000000     200.00000000     200.00000000     200.00000000     200.00000000     200.00000000     200.00000000     200.00000000     200.00000000     200.00000000     200.00000000     200.00000000     200.00000000     200.00000000     200.00000000     200.00000000     200.00000000     200.00000000     200.00000000     200.00000000     200.00000000     200.00000000     200.00000000     200.00000000     200.00000000     200.00000000     200.00000000     200.00000000     200.00000000     200.00000000     200.00000000     200.00000000     200.00000000     200.00000000     200.00000000     200.00000000     200.00000000     200.00000000     200.00000000     200.00000000     200.00000000     200.00000000     200.00000000     200.00000000     200.00000000     200.00000000     200.00000000     200.00000000     200.00000000     200.00000000     200.00000000     200.00000000     200.00000000     200.00000000     200.00000000     200.00000000     200.00000000     200.00000000     200.00000000     200.00000000     200.00000000     200.00000000     200.00000000     200.00000000     200.00000000     200.00000000     200.00000000     200.00000000     200.00000000     200.00000000     200.00000000     200.00000000     200.00000000     200.00000000     200.00000000     200.00000000     200.00000000     200.00000000     200.00000000     200.00000000     200.00000000     200.00000000     200.00000000     200.00000000     200.00000000     200.00000000     200.00000000     200.00000000     200.00000000     200.00000000     200.00000000     200.00000000     200.00000000     200.00000000     200.00000000     200.00000000     200.00000000     200.00000000     200.00000000     200.00000000     200.00000000     200.00000000     200.00000000     200.00000000     200.00000000     200.00000000     200.00000000     200.00000000     200.00000000     200.00000000     200.00000000     200.00000000     200.00000000     200.00000000     200.00000000     200.00000000     200.00000000     200.00000000     200.00000000     200.00000000     200.00000000     200.00000000     200.00000000     200.00000000     200.00000000     200.00000000     200.00000000     200.00000000     200.00000000     200.00000000     200.00000000     200.00000000     200.00000000     200.00000000     200.00000000     200.00000000     200.00000000     200.00000000     200.00000000     200.00000000     200.00000000     200.00000000     200.00000000     200.00000000     200.00000000     200.00000000     200.00000000     200.00000000     200.00000000     200.00000000     200.00000000     200.00000000     200.00000000     200.00000000     200.00000000     200.00000000     200.00000000     200.00000000     200.00000000     200.00000000     200.00000000     200.00000000     200.00000000     200.00000000     200.00000000     200.00000000     200.00000000     200.00000000     200.00000000     200.00000000     200.00000000     200.00000000     200.00000000     200.00000000     200.00000000     200.00000000     200.00000000     200.00000000     200.00000000     200.00000000     200.00000000     200.00000000     200.00000000     200.00000000     200.00000000     200.00000000     200.00000000     200.00000000     200.00000000     200.00000000     200.00000000     200.00000000     200.00000000     200.00000000     200.00000000     200.00000000     200.00000000     200.00000000
       200.00000000     200.00000000     200.00000000     200.00000000     200.00000000     200.00000000     200.00000000     200.00000000     200.00000000     200.00000000     200.00000000     200.00000000     200.00000000     200.00000000     200.00000000     200.00000000     200.00000000     200.00000000     200.00000000     200.00000000     200.00000000     200.00000000     200.00000000     200.00000000     200.00000000     200.00000000     200.00000000     200.00000000     200.00000000     200.00000000     200.00000000     200.00000000     200.00000000     200.00000000     200.00000000     200.00000000     200.00000000     200.00000000     200.00000000     200.00000000     200.00000000     200.00000000     200.00000000     200.00000000     200.00000000     200.00000000     200.00000000     200.00000000     200.00000000     200.00000000     200.00000000     200.00000000     200.00000000     200.00000000     200.00000000     200.00000000     200.00000000     200.00000000     200.00000000     200.00000000     200.00000000     200.00000000     200.00000000     200.00000000     200.00000000     200.00000000     200.00000000     200.00000000     200.00000000     200.00000000     200.00000000     200.00000000     200.00000000     200.00000000     200.00000000     200.00000000     200.00000000     200.00000000     200.00000000     200.00000000     200.00000000     200.00000000     200.00000000     200.00000000     200.00000000     200.00000000     200.00000000     200.00000000     200.00000000     200.00000000     200.00000000     200.00000000     200.00000000     200.00000000     200.00000000     200.00000000     200.00000000     200.00000000     200.00000000     200.00000000     200.00000000     200.00000000     200.00000000     200.00000000     200.00000000     200.00000000     200.00000000     200.00000000     200.00000000     200.00000000     200.00000000     200.00000000     200.00000000     200.00000000     200.00000000     200.00000000     200.00000000     200.00000000     200.00000000     200.00000000     200.00000000     200.00000000     200.00000000     200.00000000     200.00000000     200.00000000     200.00000000     200.00000000     200.00000000     200.00000000     200.00000000     200.00000000     200.00000000     200.00000000     200.00000000     200.00000000     200.00000000     200.00000000     200.00000000     200.00000000     200.00000000     200.00000000     200.00000000     200.00000000     200.00000000     200.00000000     200.00000000     200.00000000     200.00000000     200.00000000     200.00000000     200.00000000     200.00000000     200.00000000     200.00000000     200.00000000     200.00000000     200.00000000     200.00000000     200.00000000     200.00000000     200.00000000     200.00000000     200.00000000     200.00000000     200.00000000     200.00000000     200.00000000     200.00000000     200.00000000     200.00000000     200.00000000     200.00000000     200.00000000     200.00000000     200.00000000     200.00000000     200.00000000     200.00000000     200.00000000     200.00000000     200.00000000     200.00000000     200.00000000     200.00000000     200.00000000     200.00000000     200.00000000     200.00000000     200.00000000     200.00000000     200.00000000     200.00000000     200.00000000     200.00000000     200.00000000     200.00000000     200.00000000     200.00000000     200.00000000
       200.00000000     200.00000000     200.00000000     200.00000000     200.00000000     200.00000000     200.00000000     200.00000000     200.00000000     200.00000000     200.00000000     200.00000000     200.00000000     200.00000000     200.00000000     200.00000000     200.00000000     200.00000000     200.00000000     200.00000000     200.00000000     200.00000000     200.00000000     200.00000000     200.00000000     200.00000000     200.00000000     200.00000000     200.00000000     200.00000000     200.00000000     200.00000000     200.00000000     200.00000000     200.00000000     200.00000000     200.00000000     200.00000000     200.00000000     200.00000000     200.00000000     200.00000000     200.00000000     200.00000000     200.00000000     200.00000000     200.00000000     200.00000000     200.00000000     200.00000000     200.00000000     200.00000000     200.00000000     200.00000000     200.00000000     200.00000000     200.00000000     200.00000000     200.00000000     200.00000000     200.00000000     200.00000000     200.00000000     200.00000000     200.00000000     200.00000000     200.00000000     200.00000000     200.00000000     200.00000000     200.00000000     200.00000000     200.00000000     200.00000000     200.00000000     200.00000000     200.00000000     200.00000000     200.00000000     200.00000000     200.00000000     200.00000000     200.00000000     200.00000000     200.00000000     200.00000000     200.00000000     200.00000000     200.00000000     200.00000000     200.00000000     200.00000000     200.00000000     200.00000000     200.00000000     200.00000000     200.00000000     200.00000000     200.00000000     200.00000000     200.00000000     200.00000000     200.00000000     200.00000000     200.00000000     200.00000000     200.00000000     200.00000000     200.00000000     200.00000000     200.00000000     200.00000000     200.00000000     200.00000000     200.00000000     200.00000000     200.00000000     200.00000000     200.00000000     200.00000000     200.00000000     200.00000000     200.00000000     200.00000000     200.00000000     200.00000000     200.00000000     200.00000000     200.00000000     200.00000000     200.00000000     200.00000000     200.00000000     200.00000000     200.00000000     200.00000000     200.00000000     200.00000000     200.00000000     200.00000000     200.00000000     200.00000000     200.00000000     200.00000000     200.00000000     200.00000000     200.00000000     200.00000000     200.00000000     200.00000000     200.00000000     200.00000000     200.00000000     200.00000000     200.00000000     200.00000000     200.00000000     200.00000000     200.00000000     200.00000000     200.00000000     200.00000000     200.00000000     200.00000000     200.00000000     200.00000000     200.00000000     200.00000000     200.00000000     200.00000000     200.00000000     200.00000000     200.00000000     200.00000000     200.00000000     200.00000000     200.00000000     200.00000000     200.00000000     200.00000000     200.00000000     200.00000000     200.00000000     200.00000000     200.00000000     200.00000000     200.00000000     200.00000000     200.00000000     200.00000000     200.00000000     200.00000000     200.00000000     200.00000000     200.00000000     200.00000000     200.00000000     200.00000000     200.00000000     200.00000000
       200.00000000     200.00000000     200.00000000     200.00000000     200.00000000     200.00000000     200.00000000     200.00000000     200.00000000     200.00000000     200.00000000     200.00000000     200.00000000     200.00000000     200.00000000     200.00000000     200.00000000     200.00000000     200.00000000     200.00000000     200.00000000     200.00000000     200.00000000     200.00000000     200.00000000     200.00000000     200.00000000     200.00000000     200.00000000     200.00000000     200.00000000     200.00000000     200.00000000     200.00000000     200.00000000     200.00000000     200.00000000     200.00000000     200.00000000     200.00000000     200.00000000     200.00000000     200.00000000     200.00000000     200.00000000     200.00000000     200.00000000     200.00000000     200.00000000     200.00000000     200.00000000     200.00000000     200.00000000     200.00000000     200.00000000     200.00000000     200.00000000     200.00000000     200.00000000     200.00000000     200.00000000     200.00000000     200.00000000     200.00000000     200.00000000     200.00000000     200.00000000     200.00000000     200.00000000     200.00000000     200.00000000     200.00000000     200.00000000     200.00000000     200.00000000     200.00000000     200.00000000     200.00000000     200.00000000     200.00000000     200.00000000     200.00000000     200.00000000     200.00000000     200.00000000     200.00000000     200.00000000     200.00000000     200.00000000     200.00000000     200.00000000     200.00000000     200.00000000     200.00000000     200.00000000     200.00000000     200.00000000     200.00000000     200.00000000     200.00000000     200.00000000     200.00000000     200.00000000     200.00000000     200.00000000     200.00000000     200.00000000     200.00000000     200.00000000     200.00000000     200.00000000     200.00000000     200.00000000     200.00000000     200.00000000     200.00000000     200.00000000     200.00000000     200.00000000     200.00000000     200.00000000     200.00000000     200.00000000     200.00000000     200.00000000     200.00000000     200.00000000     200.00000000     200.00000000     200.00000000     200.00000000     200.00000000     200.00000000     200.00000000     200.00000000     200.00000000     200.00000000     200.00000000     200.00000000     200.00000000     200.00000000     200.00000000     200.00000000     200.00000000     200.00000000     200.00000000     200.00000000     200.00000000     200.00000000     200.00000000     200.00000000     200.00000000     200.00000000     200.00000000     200.00000000     200.00000000     200.00000000     200.00000000     200.00000000     200.00000000     200.00000000     200.00000000     200.00000000     200.00000000     200.00000000     200.00000000     200.00000000     200.00000000     200.00000000     200.00000000     200.00000000     200.00000000     200.00000000     200.00000000     200.00000000     200.00000000     200.00000000     200.00000000     200.00000000     200.00000000     200.00000000     200.00000000     200.00000000     200.00000000     200.00000000     200.00000000     200.00000000     200.00000000     200.00000000     200.00000000     200.00000000     200.00000000     200.00000000     200.00000000     200.00000000     200.00000000     200.00000000     200.00000000     200.00000000     200.00000000
       200.00000000     200.00000000     200.00000000     200.00000000     200.00000000     200.00000000     200.00000000     200.00000000     200.00000000     200.00000000     200.00000000     200.00000000     200.00000000     200.00000000     200.00000000     200.00000000     200.00000000     200.00000000     200.00000000     200.00000000     200.00000000     200.00000000     200.00000000     200.00000000     200.00000000     200.00000000     200.00000000     200.00000000     200.00000000     200.00000000     200.00000000     200.00000000     200.00000000     200.00000000     200.00000000     200.00000000     200.00000000     200.00000000     200.00000000     200.00000000     200.00000000     200.00000000     200.00000000     200.00000000     200.00000000     200.00000000     200.00000000     200.00000000     200.00000000     200.00000000     200.00000000     200.00000000     200.00000000     200.00000000     200.00000000     200.00000000     200.00000000     200.00000000     200.00000000     200.00000000     200.00000000     200.00000000     200.00000000     200.00000000     200.00000000     200.00000000     200.00000000     200.00000000     200.00000000     200.00000000     200.00000000     200.00000000     200.00000000     200.00000000     200.00000000     200.00000000     200.00000000     200.00000000     200.00000000     200.00000000     200.00000000     200.00000000     200.00000000     200.00000000     200.00000000     200.00000000     200.00000000     200.00000000     200.00000000     200.00000000     200.00000000     200.00000000     200.00000000     200.00000000     200.00000000     200.00000000     200.00000000     200.00000000     200.00000000     200.00000000     200.00000000     200.00000000     200.00000000     200.00000000     200.00000000     200.00000000     200.00000000     200.00000000     200.00000000     200.00000000     200.00000000     200.00000000     200.00000000     200.00000000     200.00000000     200.00000000     200.00000000     200.00000000     200.00000000     200.00000000     200.00000000     200.00000000     200.00000000     200.00000000     200.00000000     200.00000000     200.00000000     200.00000000     200.00000000     200.00000000     200.00000000     200.00000000     200.00000000     200.00000000     200.00000000     200.00000000     200.00000000     200.00000000     200.00000000     200.00000000     200.00000000     200.00000000     200.00000000     200.00000000     200.00000000     200.00000000     200.00000000     200.00000000     200.00000000     200.00000000     200.00000000     200.00000000     200.00000000     200.00000000     200.00000000     200.00000000     200.00000000     200.00000000     200.00000000     200.00000000     200.00000000     200.00000000     200.00000000     200.00000000     200.00000000     200.00000000     200.00000000     200.00000000     200.00000000     200.00000000     200.00000000     200.00000000     200.00000000     200.00000000     200.00000000     200.00000000     200.00000000     200.00000000     200.00000000     200.00000000     200.00000000     200.00000000     200.00000000     200.00000000     200.00000000     200.00000000     200.00000000     200.00000000     200.00000000     200.00000000     200.00000000     200.00000000     200.00000000     200.00000000     200.00000000     200.00000000     200.00000000     200.00000000     200.00000000     200.00000000
       200.00000000     200.00000000     200.00000000     200.00000000     200.00000000     200.00000000     200.00000000     200.00000000     200.00000000     200.00000000     200.00000000     200.00000000     200.00000000     200.00000000     200.00000000     200.00000000     200.00000000     200.00000000     200.00000000     200.00000000     200.00000000     200.00000000     200.00000000     200.00000000     200.00000000     200.00000000     200.00000000     200.00000000     200.00000000     200.00000000     200.00000000     200.00000000     200.00000000     200.00000000     200.00000000     200.00000000     200.00000000     200.00000000     200.00000000     200.00000000     200.00000000     200.00000000     200.00000000     200.00000000     200.00000000     200.00000000     200.00000000     200.00000000     200.00000000     200.00000000     200.00000000     200.00000000     200.00000000     200.00000000     200.00000000     200.00000000     200.00000000     200.00000000     200.00000000     200.00000000     200.00000000     200.00000000     200.00000000     200.00000000     200.00000000     200.00000000     200.00000000     200.00000000     200.00000000     200.00000000     200.00000000     200.00000000     200.00000000     200.00000000     200.00000000     200.00000000     200.00000000     200.00000000     200.00000000     200.00000000     200.00000000     200.00000000     200.00000000     200.00000000     200.00000000     200.00000000     200.00000000     200.00000000     200.00000000     200.00000000     200.00000000     200.00000000     200.00000000     200.00000000     200.00000000     200.00000000     200.00000000     200.00000000     200.00000000     200.00000000     200.00000000     200.00000000     200.00000000     200.00000000     200.00000000     200.00000000     200.00000000     200.00000000     200.00000000     200.00000000     200.00000000     200.00000000     200.00000000     200.00000000     200.00000000     200.00000000     200.00000000     200.00000000     200.00000000     200.00000000     200.00000000     200.00000000     200.00000000     200.00000000     200.00000000     200.00000000     200.00000000     200.00000000     200.00000000     200.00000000     200.00000000     200.00000000     200.00000000     200.00000000     200.00000000     200.00000000     200.00000000     200.00000000     200.00000000     200.00000000     200.00000000     200.00000000     200.00000000     200.00000000     200.00000000     200.00000000     200.00000000     200.00000000     200.00000000     200.00000000     200.00000000     200.00000000     200.00000000     200.00000000     200.00000000     200.00000000     200.00000000     200.00000000     200.00000000     200.00000000     200.00000000     200.00000000     200.00000000     200.00000000     200.00000000     200.00000000     200.00000000     200.00000000     200.00000000     200.00000000     200.00000000     200.00000000     200.00000000     200.00000000     200.00000000     200.00000000     200.00000000     200.00000000     200.00000000     200.00000000     200.00000000     200.00000000     200.00000000     200.00000000     200.00000000     200.00000000     200.00000000     200.00000000     200.00000000     200.00000000     200.00000000     200.00000000     200.00000000     200.00000000     200.00000000     200.00000000     200.00000000     200.00000000     200.00000000     200.00000000