# File generated by Flopy version 3.8.0 on 01/30/2025 at 14:22:46.
BEGIN options
  SAVE_FLOWS
END options

BEGIN dimensions
  MAXBOUND  400
END dimensions

BEGIN period  1
    OPEN/CLOSE  'fp_mf6_model.riv_stress_period_data_1.txt'
END period  1

