# File generated by Flopy version 3.8.0 on 01/30/2025 at 14:22:46.
BEGIN options
  READASARRAYS
  SAVE_FLOWS
END options

BEGIN period  1
  recharge
    OPEN/CLOSE  'fp_mf6_model.rcha_recharge_1.txt'  FACTOR  1.0
END period  1

