# File generated by Flopy version 3.8.0 on 01/30/2025 at 14:22:46.
BEGIN options
  PRINT_OPTION  all
  COMPLEXITY  complex
END options

