# File generated by Flopy version 3.8.0 on 01/30/2025 at 14:22:46.
BEGIN options
  SAVE_FLOWS
  SAVE_SPECIFIC_DISCHARGE
  SAVE_SATURATION
  K33OVERK
END options

BEGIN griddata
  icelltype
    OPEN/CLOSE  'fp_mf6_model.npf_icelltype.txt'  FACTOR  1
  k
    OPEN/CLOSE  'fp_mf6_model.npf_k.txt'  FACTOR  1.0
  k33
    OPEN/CLOSE  'fp_mf6_model.npf_k33.txt'  FACTOR  1.0
END griddata

