# File generated by Flopy version 3.8.0 on 01/30/2025 at 14:22:46.
BEGIN options
  SAVE_FLOWS
  NEWTON
END options

BEGIN packages
  IC6  fp_mf6_model.ic  ic
  DIS6  fp_mf6_model.dis  dis
  RIV6  fp_mf6_model.riv  riv_0
  GHB6  fp_mf6_model.ghb  ghb_0
  WEL6  fp_mf6_model.wel  wel_0
  RCH6  fp_mf6_model.rcha  rcha_0
  NPF6  fp_mf6_model.npf  npf
  OC6  fp_mf6_model.oc  oc
END packages

