# File generated by Flopy version 3.8.0 on 01/30/2025 at 14:22:46.
BEGIN options
END options

BEGIN timing
  TDIS6  fp_mf6_model.tdis
END timing

BEGIN models
  gwf6  fp_mf6_model.nam  fp_mf6_model
END models

BEGIN exchanges
END exchanges

BEGIN solutiongroup  1
  ims6  fp_mf6_model.ims  fp_mf6_model
END solutiongroup  1

